Circuit: * \\S-MACBOOKPRO\SpaceTech_GARAGE\LTSpice\rsp02_LoadSW_OCP_Circuit_v1_2\rsp02_LoadSW_OCP_Circuit_v1_2.asc

Iload_tran: both pins shorted together -- ignoring.
Model "q1:nmos": Oxide thickness thinner than recommended for a level 3 MOSFET.
Model "q1:pmos": Oxide thickness thinner than recommended for a level 3 MOSFET.
WARNING: Less than two connections to node N004.  This node is used by VIN_DC.
WARNING: Less than two connections to node N001.  This node is used by VIOEXPDR_TRAN.
WARNING: Less than two connections to node N003.  This node is used by VRRX_TRAN.
Instance "m:q1:2": Length shorter than recommended for a level 3 MOSFET.
Instance "m:q1:1": Length shorter than recommended for a level 3 MOSFET.
Direct Newton iteration failed to find .op point.  (Use ".option noopiter" to skip.)
Starting Gmin stepping
Gmin = 10
Gmin = 1.07374
Gmin = 0.115292
Gmin = 0.0123794
Gmin = 0.00132923
Gmin = 0.000142725
Gmin = 1.5325e-005
Gmin = 1.6455e-006
Gmin = 1.76685e-007
Gmin = 1.89714e-008
Gmin = 2.03704e-009
vernier = 0.5
vernier = 0.25
Gmin = 6.98035e-010
vernier = 0.333333
Gmin = 3.38835e-010
vernier = 0.444444
vernier = 0.592592
Gmin = 1.03622e-010
vernier = 0.790123
vernier = 1
Gmin = 1.70576e-011
Gmin = 1.83154e-012
Gmin = 1.9666e-013
Gmin = 0
Gmin stepping succeeded in finding the operating point.


Date: Fri Oct 30 13:49:09 2020
Total elapsed time: 1.620 seconds.

tnom = 27
temp = 27
method = trap
totiter = 772
traniter = 0
tranpoints = 0
accept = 0
rejected = 0
matrix size = 84
fillins = 76
solver = Alternate
Matrix Compiler1:     485 opcodes
Matrix Compiler2: 9.36 KB object code size  2.4/3.1/[2.0]

